/*--------------------------------*- C++ -*----------------------------------*\
| =========                 |                                                 |
| \\      /  F ield         | foam-extend: Open Source CFD                    |
|  \\    /   O peration     | Version:     3.1                                |
|   \\  /    A nd           | Web:         http://www.extend-project.de       |
|    \\/     M anipulation  |                                                 |
\*---------------------------------------------------------------------------*/
FoamFile
{
    version     2.0;
    format      ascii;
    class       volScalarField;
    object      T;
}
// * * * * * * * * * * * * * * * * * * * * * * * * * * * * * * * * * * * * * //

dimensions      [0 0 0 1 0 0 0];

internalField   uniform 300;

boundaryField
{
    consoleFixed
    {
        type            zeroGradient;
    }
    consoleSolid
    {
        type            zeroGradient;
    }
    consoleSolid1
    {
        type            zeroGradient;
    }
    solidSymmetryXaxis
    {
        type            symmetryPlane;
    }
    solidSymmetryYaxisUp
    {
        type            symmetryPlane;
    }
    solidSymmetryYaxisDown
    {
        type            symmetryPlane;
    }
    unused
    {
        type            zeroGradient;
    }
}

// ************************************************************************* //
