/*--------------------------------*- C++ -*----------------------------------*\
| =========                 |                                                 |
| \\      /  F ield         | foam-extend: Open Source CFD                    |
|  \\    /   O peration     | Version:     3.1                                |
|   \\  /    A nd           | Web:         http://www.extend-project.de       |
|    \\/     M anipulation  |                                                 |
\*---------------------------------------------------------------------------*/
FoamFile
{
    version     2.0;
    format      ascii;
    class       volVectorField;
    object      U;
}
// * * * * * * * * * * * * * * * * * * * * * * * * * * * * * * * * * * * * * //

dimensions      [0 1 0 0 0 0 0];

internalField   uniform (0 0 0);

boundaryField
{
    consoleFixed
    {
        type            fixedValue;
        value           uniform (0 0 0);
    }
    consoleSolid
    {
        type            tractionDisplacement;
        traction        uniform (0 0 0);
        pressure        uniform 10;
        value           uniform (0 0 0);
    }
    consoleSolid1
    {
        type            tractionDisplacement;
        traction        uniform (0 0 0);
        pressure        uniform 0;
        value           uniform (0 0 0);
    }
    solidSymmetryXaxis
    {
        type            symmetryPlane;
    }
    solidSymmetryYaxisDown
    {
        type            symmetryPlane;
    }
    solidSymmetryYaxisUp
    {
        type            symmetryPlane;
    }
    unused
    {
        type            tractionDisplacement;
        traction        uniform (0 0 0);
        pressure        uniform 0;
        value           uniform (0 0 0);
    }

}

// ************************************************************************* //
