/*--------------------------------*- C++ -*----------------------------------*\
| =========                 |                                                 |
| \\      /  F ield         | foam-extend: Open Source CFD                    |
|  \\    /   O peration     | Version:     3.1                                |
|   \\  /    A nd           | Web:         http://www.extend-project.de       |
|    \\/     M anipulation  |                                                 |
\*---------------------------------------------------------------------------*/
FoamFile
{
    version     2.0;
    format      ascii;
    class       dictionary;
    object      blockMeshDict;
}
// * * * * * * * * * * * * * * * * * * * * * * * * * * * * * * * * * * * * * //

convertToMeters 1;

vertices
(
    (0 0 0)
    (1 0 0)
    (1 0 1)
    (1 0 1.003)
    (1 0 2.003)
    (0 0 2.003)
    (0 0 1.003)
    (0 0 1)

    (0 1 0)
    (1 1 0)
    (1 1 1)
    (1 1 1.003)
    (1 1 2.003)
    (0 1 2.003)
    (0 1 1.003)
    (0 1 1)
);

blocks
(
    hex (0 1 9 8 7 2 10 15) (20 20 20) simpleGrading (1 1 1)
    hex (6 3 11 14 5 4 12 13) (20 20 20) simpleGrading (1 1 1)
);

edges
(
);

patches
(
    patch Inlet
    (
        (0 8 9 1)
    )
    patch consoleAcoustic
    (
        (7 15 10 2)
	(6 3 11 14)
    )
    patch emission
    (
	(8 15 10 9)
	(0 7 15 8)
	(0 1 2 7)
	(1 9 10 2)
    )
    patch reception
    (
        (6 3 4 5)
	(3 11 12 4)
	(11 14 13 12)
	(14 6 5 13)
	(12 13 5 4)
    )
);

mergePatchPairs
(
);

// ************************************************************************* //
