/*--------------------------------*- C++ -*----------------------------------*\
| =========                 |                                                 |
| \\      /  F ield         | foam-extend: Open Source CFD                    |
|  \\    /   O peration     | Version:     3.1                                |
|   \\  /    A nd           | Web:         http://www.extend-project.de       |
|    \\/     M anipulation  |                                                 |
\*---------------------------------------------------------------------------*/
FoamFile
{
    version     2.0;
    format      ascii;
    class       dictionary;
    object      blockMeshDict;
}
// * * * * * * * * * * * * * * * * * * * * * * * * * * * * * * * * * * * * * //

convertToMeters 0.001;

vertices
(
    (-30.000 0 0)
    (-27.458 0 0)
    (27.458 0 0)
    (30.000 0 0)
    (30.000 0 2.5)
    (27.458 0 2.5)
    (-27.458 0 2.5)
    (-30.000 0 2.5)
    (-30.000 0 29.25)
    (-3.000 0 29.25)
    (-0.458 0 29.25)
    (0.458 0 29.25)
    (3.000 0 29.25)
    (30.000 0 29.25)
    (30.000 0 32.25)
    (3.000 0 32.25)
    (0.458 0 32.25)
    (-0.458 0 32.25) 
    (-3.000 0 32.25)
    (-30.000 0 32.25) 
    (-30.000 750 0)
    (-27.458 750 0)
    (27.458 750 0)
    (30.000 750 0)
    (30.000 750 2.5)
    (27.458 750 2.5)
    (-27.458 750 2.5)
    (-30.000 750 2.5)
    (-30.000 750 29.25)
    (-3.000 750 29.25)
    (-0.458 750 29.25)
    (0.458 750 29.25)
    (3.000 750 29.25)
    (30.000 750 29.25)
    (30.000 750 32.25)
    (3.000 750 32.25)
    (0.458 750 32.25)
    (-0.458 750 32.25) 
    (-3.000 750 32.25)
    (-30.000 750 32.25)  
       
    (32.542 0 0)
    (87.458 0 0)
    (90.000 0 0)
    (90.000 0 2.5)
    (87.458 0 2.5)
    (32.542 0 2.5)
    (57.000 0 29.25)
    (59.542 0 29.25)
    (60.458 0 29.25)
    (63.000 0 29.25)
    (90.000 0 29.25)
    (90.000 0 32.25)
    (63.000 0 32.25)
    (60.458 0 32.25)
    (59.542 0 32.25) 
    (57.000 0 32.25)
    (32.542 750 0)
    (87.458 750 0)
    (90.000 750 0)
    (90.000 750 2.5)
    (87.458 750 2.5)
    (32.542 750 2.5)
    (57.000 750 29.25)
    (59.542 750 29.25)
    (60.458 750 29.25)
    (63.000 750 29.25)
    (90.000 750 29.25)
    (90.000 750 32.25)
    (63.000 750 32.25)
    (60.458 750 32.25)
    (59.542 750 32.25) 
    (57.000 750 32.25)

    (92.542 0 0)
    (147.458 0 0)
    (150.000 0 0)
    (150.000 0 2.5)
    (147.458 0 2.5)
    (92.542 0 2.5)
    (117.000 0 29.25)
    (119.542 0 29.25)
    (120.458 0 29.25)
    (123.000 0 29.25)
    (150.000 0 29.25)
    (150.000 0 32.25)
    (123.000 0 32.25)
    (120.458 0 32.25)
    (119.542 0 32.25) 
    (117.000 0 32.25)
    (92.542 750 0)
    (147.458 750 0)
    (150.000 750 0)
    (150.000 750 2.5)
    (147.458 750 2.5)
    (92.542 750 2.5)
    (117.000 750 29.25)
    (119.542 750 29.25)
    (120.458 750 29.25)
    (123.000 750 29.25)
    (150.000 750 29.25)
    (150.000 750 32.25)
    (123.000 750 32.25)
    (120.458 750 32.25)
    (119.542 750 32.25) 
    (117.000 750 32.25)


    (152.542 0 0)
    (207.458 0 0)
    (210.000 0 0)
    (210.000 0 2.5)
    (207.458 0 2.5)
    (152.542 0 2.5)
    (177.000 0 29.25)
    (179.542 0 29.25)
    (180.458 0 29.25)
    (183.000 0 29.25)
    (210.000 0 29.25)
    (210.000 0 32.25)
    (183.000 0 32.25)
    (180.458 0 32.25)
    (179.542 0 32.25) 
    (177.000 0 32.25)
    (152.542 750 0)
    (207.458 750 0)
    (210.000 750 0)
    (210.000 750 2.5)
    (207.458 750 2.5)
    (152.542 750 2.5)
    (177.000 750 29.25)
    (179.542 750 29.25)
    (180.458 750 29.25)
    (183.000 750 29.25)
    (210.000 750 29.25)
    (210.000 750 32.25)
    (183.000 750 32.25)
    (180.458 750 32.25)
    (179.542 750 32.25) 
    (177.000 750 32.25)

    (212.542 0 0)
    (267.458 0 0)
    (270.000 0 0)
    (270.000 0 2.5)
    (267.458 0 2.5)
    (212.542 0 2.5)
    (237.000 0 29.25)
    (239.542 0 29.25)
    (240.458 0 29.25)
    (243.000 0 29.25)
    (270.000 0 29.25)
    (270.000 0 32.25)
    (243.000 0 32.25)
    (240.458 0 32.25)
    (239.542 0 32.25) 
    (237.000 0 32.25)
    (212.542 750 0)
    (267.458 750 0)
    (270.000 750 0)
    (270.000 750 2.5)
    (267.458 750 2.5)
    (212.542 750 2.5)
    (237.000 750 29.25)
    (239.542 750 29.25)
    (240.458 750 29.25)
    (243.000 750 29.25)
    (270.000 750 29.25)
    (270.000 750 32.25)
    (243.000 750 32.25)
    (240.458 750 32.25)
    (239.542 750 32.25) 
    (237.000 750 32.25)

    (272.542 0 0)
    (327.458 0 0)
    (330.000 0 0)
    (330.000 0 2.5)
    (327.458 0 2.5)
    (272.542 0 2.5)
    (297.000 0 29.25)
    (299.542 0 29.25)
    (300.458 0 29.25)
    (303.000 0 29.25)
    (330.000 0 29.25)
    (330.000 0 32.25)
    (303.000 0 32.25)
    (300.458 0 32.25)
    (299.542 0 32.25) 
    (297.000 0 32.25)
    (272.542 750 0)
    (327.458 750 0)
    (330.000 750 0)
    (330.000 750 2.5)
    (327.458 750 2.5)
    (272.542 750 2.5)
    (297.000 750 29.25)
    (299.542 750 29.25)
    (300.458 750 29.25)
    (303.000 750 29.25)
    (330.000 750 29.25)
    (330.000 750 32.25)
    (303.000 750 32.25)
    (300.458 750 32.25)
    (299.542 750 32.25) 
    (297.000 750 32.25)

    (332.542 0 0)
    (387.458 0 0)
    (390.000 0 0)
    (390.000 0 2.5)
    (387.458 0 2.5)
    (332.542 0 2.5)
    (357.000 0 29.25)
    (359.542 0 29.25)
    (360.458 0 29.25)
    (363.000 0 29.25)
    (390.000 0 29.25)
    (390.000 0 32.25)
    (363.000 0 32.25)
    (360.458 0 32.25)
    (359.542 0 32.25) 
    (357.000 0 32.25)
    (332.542 750 0)
    (387.458 750 0)
    (390.000 750 0)
    (390.000 750 2.5)
    (387.458 750 2.5)
    (332.542 750 2.5)
    (357.000 750 29.25)
    (359.542 750 29.25)
    (360.458 750 29.25)
    (363.000 750 29.25)
    (390.000 750 29.25)
    (390.000 750 32.25)
    (363.000 750 32.25)
    (360.458 750 32.25)
    (359.542 750 32.25) 
    (357.000 750 32.25)

    (392.542 0 0)
    (447.458 0 0)
    (450.000 0 0)
    (450.000 0 2.5)
    (447.458 0 2.5)
    (392.542 0 2.5)
    (417.000 0 29.25)
    (419.542 0 29.25)
    (420.458 0 29.25)
    (423.000 0 29.25)
    (450.000 0 29.25)
    (450.000 0 32.25)
    (423.000 0 32.25)
    (420.458 0 32.25)
    (419.542 0 32.25) 
    (417.000 0 32.25)
    (392.542 750 0)
    (447.458 750 0)
    (450.000 750 0)
    (450.000 750 2.5)
    (447.458 750 2.5)
    (392.542 750 2.5)
    (417.000 750 29.25)
    (419.542 750 29.25)
    (420.458 750 29.25)
    (423.000 750 29.25)
    (450.000 750 29.25)
    (450.000 750 32.25)
    (423.000 750 32.25)
    (420.458 750 32.25)
    (419.542 750 32.25) 
    (417.000 750 32.25)

    (452.542 0 0)
    (507.458 0 0)
    (510.000 0 0)
    (510.000 0 2.5)
    (507.458 0 2.5)
    (452.542 0 2.5)
    (477.000 0 29.25)
    (479.542 0 29.25)
    (480.458 0 29.25)
    (483.000 0 29.25)
    (510.000 0 29.25)
    (510.000 0 32.25)
    (483.000 0 32.25)
    (480.458 0 32.25)
    (479.542 0 32.25) 
    (477.000 0 32.25)
    (452.542 750 0)
    (507.458 750 0)
    (510.000 750 0)
    (510.000 750 2.5)
    (507.458 750 2.5)
    (452.542 750 2.5)
    (477.000 750 29.25)
    (479.542 750 29.25)
    (480.458 750 29.25)
    (483.000 750 29.25)
    (510.000 750 29.25)
    (510.000 750 32.25)
    (483.000 750 32.25)
    (480.458 750 32.25)
    (479.542 750 32.25) 
    (477.000 750 32.25)

    (512.542 0 0)
    (567.458 0 0)
    (570.000 0 0)
    (570.000 0 2.5)
    (567.458 0 2.5)
    (512.542 0 2.5)
    (537.000 0 29.25)
    (539.542 0 29.25)
    (540.458 0 29.25)
    (543.000 0 29.25)
    (570.000 0 29.25)
    (570.000 0 32.25)
    (543.000 0 32.25)
    (540.458 0 32.25)
    (539.542 0 32.25) 
    (537.000 0 32.25)
    (512.542 750 0)
    (567.458 750 0)
    (570.000 750 0)
    (570.000 750 2.5)
    (567.458 750 2.5)
    (512.542 750 2.5)
    (537.000 750 29.25)
    (539.542 750 29.25)
    (540.458 750 29.25)
    (543.000 750 29.25)
    (570.000 750 29.25)
    (570.000 750 32.25)
    (543.000 750 32.25)
    (540.458 750 32.25)
    (539.542 750 32.25) 
    (537.000 750 32.25)
);

blocks
(
    hex (0 1 21 20 7 6 26 27) (1 75 1) simpleGrading (1 1 1)
    hex (1 2 22 21 6 5 25 26) (6 75 1) simpleGrading (1 1 1)   
    hex (2 3 23 22 5 4 24 25) (1 75 1) simpleGrading (1 1 1) 
    hex (7 6 26 27 9 10 30 29) (1 75 6) simpleGrading (1 1 1)
    hex (5 4 24 25 11 12 32 31) (1 75 6) simpleGrading (1 1 1)
    hex (8 9 29 28 19 18 38 39) (6 75 1) simpleGrading (1 1 1)
    hex (9 10 30 29 18 17 37 38) (1 75 1) simpleGrading (1 1 1)
    hex (10 11 31 30 17 16 36 37) (1 75 1) simpleGrading (1 1 1)
    hex (11 12 32 31 16 15 35 36) (1 75 1) simpleGrading (1 1 1)
    hex (12 13 33 32 15 14 34 35) (6 75 1) simpleGrading (1 1 1)

    hex (3 40 56 23 4 45 61 24) (1 75 1) simpleGrading (1 1 1)
    hex (40 41 57 56 45 44 60 61) (6 75 1) simpleGrading (1 1 1)   
    hex (41 42 58 57 44 43 59 60) (1 75 1) simpleGrading (1 1 1) 
    hex (4 45 61 24 46 47 63 62) (1 75 6) simpleGrading (1 1 1)
    hex (44 43 59 60 48 49 65 64) (1 75 6) simpleGrading (1 1 1)
    hex (13 46 62 33 14 55 71 34) (6 75 1) simpleGrading (1 1 1)
    hex (46 47 63 62 55 54 70 71) (1 75 1) simpleGrading (1 1 1)
    hex (47 48 64 63 54 53 69 70) (1 75 1) simpleGrading (1 1 1)
    hex (48 49 65 64 53 52 68 69) (1 75 1) simpleGrading (1 1 1)
    hex (49 50 66 65 52 51 67 68) (6 75 1) simpleGrading (1 1 1)

    hex (42 72 88 58 43 77 93 59) (1 75 1) simpleGrading (1 1 1)
    hex (72 73 89 88 77 76 92 93) (6 75 1) simpleGrading (1 1 1)   
    hex (73 74 90 89 76 75 91 92) (1 75 1) simpleGrading (1 1 1) 
    hex (43 77 93 59 78 79 95 94) (1 75 6) simpleGrading (1 1 1)
    hex (76 75 91 92 80 81 97 96) (1 75 6) simpleGrading (1 1 1)
    hex (50 78 94 66 51 87 103 67) (6 75 1) simpleGrading (1 1 1)
    hex (78 79 95 94 87 86 102 103) (1 75 1) simpleGrading (1 1 1)
    hex (79 80 96 95 86 85 101 102) (1 75 1) simpleGrading (1 1 1)
    hex (80 81 97 96 85 84 100 101) (1 75 1) simpleGrading (1 1 1)
    hex (81 82 98 97 84 83 99 100) (6 75 1) simpleGrading (1 1 1)

    hex (74 104 120 90 75 109 125 91) (1 75 1) simpleGrading (1 1 1)
    hex (104 105 121 120 109 108 124 125) (6 75 1) simpleGrading (1 1 1)   
    hex (105 106 122 121 108 107 123 124) (1 75 1) simpleGrading (1 1 1) 
    hex (75 109 125 91 110 111 127 126) (1 75 6) simpleGrading (1 1 1)
    hex (108 107 123 124 112 113 129 128) (1 75 6) simpleGrading (1 1 1)
    hex (82 110 126 98 83 119 135 99) (6 75 1) simpleGrading (1 1 1)
    hex (110 111 127 126 119 118 134 135) (1 75 1) simpleGrading (1 1 1)
    hex (111 112 128 127 118 117 133 134) (1 75 1) simpleGrading (1 1 1)
    hex (112 113 129 128 117 116 132 133) (1 75 1) simpleGrading (1 1 1)
    hex (113 114 130 129 116 115 131 132) (6 75 1) simpleGrading (1 1 1)

    hex (106 136 152 122 107 141 157 123) (1 75 1) simpleGrading (1 1 1)
    hex (136 137 153 152 141 140 156 157) (6 75 1) simpleGrading (1 1 1)   
    hex (137 138 154 153 140 139 155 156) (1 75 1) simpleGrading (1 1 1) 
    hex (107 141 157 123 142 143 159 158) (1 75 6) simpleGrading (1 1 1)
    hex (140 139 155 156 144 145 161 160) (1 75 6) simpleGrading (1 1 1)
    hex (114 142 158 130 115 151 167 131) (6 75 1) simpleGrading (1 1 1)
    hex (142 143 159 158 151 150 166 167) (1 75 1) simpleGrading (1 1 1)
    hex (143 144 160 159 150 149 165 166) (1 75 1) simpleGrading (1 1 1)
    hex (144 145 161 160 149 148 164 165) (1 75 1) simpleGrading (1 1 1)
    hex (145 146 162 161 148 147 163 164) (6 75 1) simpleGrading (1 1 1)

    hex (138 168 184 154 139 173 189 155) (1 75 1) simpleGrading (1 1 1)
    hex (168 169 185 184 173 172 188 189) (6 75 1) simpleGrading (1 1 1)   
    hex (169 170 186 185 172 171 187 188) (1 75 1) simpleGrading (1 1 1) 
    hex (139 173 189 155 174 175 191 190) (1 75 6) simpleGrading (1 1 1)
    hex (172 171 187 188 176 177 193 192) (1 75 6) simpleGrading (1 1 1)
    hex (146 174 190 162 147 183 199 163) (6 75 1) simpleGrading (1 1 1)
    hex (174 175 191 190 183 182 198 199) (1 75 1) simpleGrading (1 1 1)
    hex (175 176 192 191 182 181 197 198) (1 75 1) simpleGrading (1 1 1)
    hex (176 177 193 192 181 180 196 197) (1 75 1) simpleGrading (1 1 1)
    hex (177 178 194 193 180 179 195 196) (6 75 1) simpleGrading (1 1 1)

    hex (170 200 216 186 171 205 221 187) (1 75 1) simpleGrading (1 1 1)
    hex (200 201 217 216 205 204 220 221) (6 75 1) simpleGrading (1 1 1)   
    hex (201 202 218 217 204 203 219 220) (1 75 1) simpleGrading (1 1 1) 
    hex (171 205 221 187 206 207 223 222) (1 75 6) simpleGrading (1 1 1)
    hex (204 203 219 220 208 209 225 224) (1 75 6) simpleGrading (1 1 1)
    hex (178 206 222 194 179 215 231 195) (6 75 1) simpleGrading (1 1 1)
    hex (206 207 223 222 215 214 230 231) (1 75 1) simpleGrading (1 1 1)
    hex (207 208 224 223 214 213 229 230) (1 75 1) simpleGrading (1 1 1)
    hex (208 209 225 224 213 212 228 229) (1 75 1) simpleGrading (1 1 1)
    hex (209 210 226 225 212 211 227 228) (6 75 1) simpleGrading (1 1 1)

    hex (202 232 248 218 203 237 253 219) (1 75 1) simpleGrading (1 1 1)
    hex (232 233 249 248 237 236 252 253) (6 75 1) simpleGrading (1 1 1)   
    hex (233 234 250 249 236 235 251 252) (1 75 1) simpleGrading (1 1 1) 
    hex (203 237 253 219 238 239 255 254) (1 75 6) simpleGrading (1 1 1)
    hex (236 235 251 252 240 241 257 256) (1 75 6) simpleGrading (1 1 1)
    hex (210 238 254 226 211 247 263 227) (6 75 1) simpleGrading (1 1 1)
    hex (238 239 255 254 247 246 262 263) (1 75 1) simpleGrading (1 1 1)
    hex (239 240 256 255 246 245 261 262) (1 75 1) simpleGrading (1 1 1)
    hex (240 241 257 256 245 244 260 261) (1 75 1) simpleGrading (1 1 1)
    hex (241 242 258 257 244 243 259 260) (6 75 1) simpleGrading (1 1 1)

    hex (234 264 280 250 235 269 285 251) (1 75 1) simpleGrading (1 1 1)
    hex (264 265 281 280 269 268 284 285) (6 75 1) simpleGrading (1 1 1)   
    hex (265 266 282 281 268 267 283 284) (1 75 1) simpleGrading (1 1 1) 
    hex (235 269 285 251 270 271 287 286) (1 75 6) simpleGrading (1 1 1)
    hex (268 267 283 284 272 273 289 288) (1 75 6) simpleGrading (1 1 1)
    hex (242 270 286 258 243 279 295 259) (6 75 1) simpleGrading (1 1 1)
    hex (270 271 287 286 279 278 294 295) (1 75 1) simpleGrading (1 1 1)
    hex (271 272 288 287 278 277 293 294) (1 75 1) simpleGrading (1 1 1)
    hex (272 273 289 288 277 276 292 293) (1 75 1) simpleGrading (1 1 1)
    hex (273 274 290 289 276 275 291 292) (6 75 1) simpleGrading (1 1 1)

    hex (266 296 312 282 267 301 317 283) (1 75 1) simpleGrading (1 1 1)
    hex (296 297 313 312 301 300 316 317) (6 75 1) simpleGrading (1 1 1)   
    hex (297 298 314 313 300 299 315 316) (1 75 1) simpleGrading (1 1 1) 
    hex (267 301 317 283 302 303 319 318) (1 75 6) simpleGrading (1 1 1)
    hex (300 299 315 316 304 305 321 320) (1 75 6) simpleGrading (1 1 1)
    hex (274 302 318 290 275 311 327 291) (6 75 1) simpleGrading (1 1 1)
    hex (302 303 319 318 311 310 326 327) (1 75 1) simpleGrading (1 1 1)
    hex (303 304 320 319 310 309 325 326) (1 75 1) simpleGrading (1 1 1)
    hex (304 305 321 320 309 308 324 325) (1 75 1) simpleGrading (1 1 1)
    hex (305 306 322 321 308 307 323 324) (6 75 1) simpleGrading (1 1 1)
);
edges
(
);

boundary
(
    solidSymmetryXaxis
    {
   	type symmetryPlane;
        faces
    (
        (21 20 27 26)
        (22 21 26 25)
        (23 22 25 24)
        (26 27 29 30)
        (24 25 31 32)
        (29 28 39 38)
        (30 29 38 37)
        (31 30 37 36)
        (32 31 36 35)
        (33 32 35 34)

	(56 23 24 61)
	(57 56 61 60)
	(58 57 60 59)
	(61 24 62 63)
	(59 60 64 65)
        (62 33 34 71)
	(63 62 71 70)
	(64 63 70 69)
	(65 64 69 68)
	(66 65 68 67)

	(88 58 59 93)
	(89 88 93 92)
	(90 89 92 91)
	(93 59 94 95)
	(91 92 96 97)
        (94 66 67 103)
	(95 94 103 102)
	(96 95 102 101)
	(97 96 101 100)
	(98 97 100 99)

	(120 90 91 125)
	(121 120 125 124)
	(122 121 124 123)
	(125 91 126 127)
	(123 124 128 129)
        (126 98 99 135)
	(127 126 135 134)
	(128 127 134 133)
	(129 128 133 132)
	(130 129 132 131)

	(152 122 123 157)
	(153 152 157 156)
	(154 153 156 155)
	(157 123 158 159)
	(155 156 160 161)
        (158 130 131 167)
	(159 158 167 166)
	(160 159 166 165)
	(161 160 165 164)
	(162 161 164 163)

	(184 154 155 189)
	(185 184 189 188)
	(186 185 188 187)
	(189 155 190 191)
	(187 188 192 193)
        (190 162 163 199)
	(191 190 199 198)
	(192 191 198 197)
	(193 192 197 196)
	(194 193 196 195)

	(216 186 187 221)
	(217 216 221 220)
	(218 217 220 219)
	(221 187 222 223)
	(219 220 224 225)
        (222 194 195 231)
	(223 222 231 230)
	(224 223 230 229)
	(225 224 229 228)
	(226 225 228 227)

	(248 218 219 253)
	(249 248 253 252)
	(250 249 252 251)
	(253 219 254 255)
	(251 252 256 257)
        (254 226 227 263)
	(255 254 263 262)
	(256 255 262 261)
	(257 256 261 260)
	(258 257 260 259)

	(280 250 251 285)
	(281 280 285 284)
	(282 281 284 283)
	(285 251 286 287)
	(283 284 288 289)
        (286 258 259 295)
	(287 286 295 294)
	(288 287 294 293)
	(289 288 293 292)
	(290 289 292 291)

	(312 282 283 317)
	(313 312 317 316)
	(314 313 316 315)
	(317 283 318 319)
	(315 316 320 321)
        (318 290 291 327)
	(319 318 327 326)
	(320 319 326 325)
	(321 320 325 324)
	(322 321 324 323)
    );
    }
    solidSymmetryYaxisDown
    {
  	type symmetryPlane;
	faces
    (
	(298 314 315 299)                    //note this last two patches
    );
    }
    solidSymmetryYaxisUp
    {
  	type symmetryPlane;
	faces
    (                 		            //note this last two patches
	(306 322 323 307)
    );
    }    
    consoleFixed
    {
 	type patch;
        faces
    (
        (0 7 27 20)                        //note the first two patches
	(8 19 39 28)
        (0 1 6 7)
        (1 2 5 6)
        (2 3 4 5)
        (7 6 10 9)
        (5 4 12 11)
        (8 9 18 19)
        (9 10 17 18)
        (10 11 16 17)
        (11 12 15 16)
        (12 13 14 15)


        (3 40 45 4)
        (40 41 44 45)
 	(41 42 43 44)
	(4 45 47 46)
	(44 43 49 48)
	(13 46 55 14)
	(46 47 54 55)
	(47 48 53 54)
	(48 49 52 53)
	(49 50 51 52)


        (42 72 77 43)
        (72 73 76 77)
 	(73 74 75 76)
	(43 77 79 78)
	(76 75 81 80)
	(50 78 87 51)
	(78 79 86 87)
	(79 80 85 86)
	(80 81 84 85)
	(81 82 83 84)


        (74 104 109 75)
        (104 105 108 109)
 	(105 106 107 108)
	(75 109 111 110)
	(108 107 113 112)
	(82 110 119 83)
	(110 111 118 119)
	(111 112 117 118)
	(112 113 116 117)
	(113 114 115 116)


        (106 136 141 107)
        (136 137 140 141)
 	(137 138 139 140)
	(107 141 143 142)
	(140 139 145 144)
	(114 142 151 115)
	(142 143 150 151)
	(143 144 149 150)
	(144 145 148 149)
	(145 146 147 148)


        (138 168 173 139)
        (168 169 172 173)
 	(169 170 171 172)
	(139 173 175 174)
	(172 171 177 176)
	(146 174 183 147)
	(174 175 182 183)
	(175 176 181 182)
	(176 177 180 181)
	(177 178 179 180)


        (170 200 205 171)
        (200 201 204 205)
 	(201 202 203 204)
	(171 205 207 206)
	(204 203 209 208)
	(178 206 215 179)
	(206 207 214 215)
	(207 208 213 214)
	(208 209 212 213)
	(209 210 211 212)


        (202 232 237 203)
        (232 233 236 237)
 	(233 234 235 236)
	(203 237 239 238)
	(236 235 241 240)
	(210 238 247 211)
	(238 239 246 247)
	(239 240 245 246)
	(240 241 244 245)
	(241 242 243 244)


        (234 264 269 235)
        (264 265 268 269)
 	(265 266 267 268)
	(235 269 271 270)
	(268 267 273 272)
	(242 270 279 243)
	(270 271 278 279)
	(271 272 277 278)
	(272 273 276 277)
	(273 274 275 276)


        (266 296 301 267)
        (296 297 300 301)
 	(297 298 299 300)
	(267 301 303 302)
	(300 299 305 304)
	(274 302 311 275)
	(302 303 310 311)
	(303 304 309 310)
	(304 305 308 309)
	(305 306 307 308)
    );
    }

    consoleSolid
    {
	type patch;
	faces
    (
        (1 0 20 21)
        (2 1 21 22)
        (3 2 22 23)

	(40 3 23 56)
	(41 40 56 57)
	(42 41 57 58)

	(72 42 58 88)
	(73 72 88 89)
	(74 73 89 90)

	(104 74 90 120)
	(105 104 120 121)
	(106 105 121 122)

	(136 106 122 152)
	(137 136 152 153)
	(138 137 153 154)

	(168 138 154 184)
	(169 168 184 185)
	(170 169 185 186)

	(200 170 186 216)
	(201 200 216 217)
	(202 201 217 218)

	(232 202 218 248)
	(233 232 248 249)
	(234 233 249 250)

	(264 234 250 280)
	(265 264 280 281)
	(266 265 281 282)

	(296 266 282 312)
	(297 296 312 313)
	(298 297 313 314)
    );
    }

    consoleSolid1
    {
	type patch;
	faces
    (
        (19 18 38 39)
        (18 17 37 38)
        (17 16 36 37)
        (16 15 35 36)
        (15 14 34 35)

	(14 55 71 34)
	(55 54 70 71)
	(54 53 69 70)
	(53 52 68 69)
	(52 51 67 68)

	(51 87 103 67)
	(87 86 102 103)
	(86 85 101 102)
	(85 84 100 101)
	(84 83 99 100)

	(83 119 135 99)
	(119 118 134 135)
	(118 117 133 134)
	(117 116 132 133)
	(116 115 131 132)

	(115 151 167 131)
	(151 150 166 167)
	(150 149 165 166)
	(149 148 164 165)
	(148 147 163 164)

	(147 183 199 163)
	(183 182 198 199)
	(182 181 197 198)
	(181 180 196 197)
	(180 179 195 196)

	(179 215 231 195)
	(215 214 230 231)
	(214 213 229 230)
	(213 212 228 229)
	(212 211 227 228)

	(211 247 263 227)
	(247 246 262 263)
	(246 245 261 262)
	(245 244 260 261)
	(244 243 259 260)

	(243 279 295 259)
	(279 278 294 295)
	(278 277 293 294)
	(277 276 292 293)
	(276 275 291 292)

	(275 311 327 291)
	(311 310 326 327)
	(310 309 325 326)
	(309 308 324 325)
	(308 307 323 324)
    );
    }

    unused
    {
	type patch;
 	faces
    (
        (5 25 26 6)
        (5 11 31 25)
        (11 10 30 31)
        (10 6 26 30)
        (9 8 28 29)
        (13 12 32 33)
        (7 9 29 27)
        (4 24 32 12)


        (44 60 61 45)
        (44 48 64 60)
        (48 47 63 64)
        (47 45 61 63)
        (4 46 62 24)
        (46 13 33 62)
        (43 59 65 49)
        (50 49 65 66)

        (76 92 93 77)
        (76 80 96 92)
        (80 79 95 96)
        (79 77 93 95)
        (43 78 94 59)
        (78 50 66 94)
        (75 91 97 81)
        (82 81 97 98)

        (108 124 125 109)
        (108 112 128 124)
        (112 111 127 128)
        (111 109 125 127)
        (75 110 126 91)
        (110 82 98 126)
        (107 123 129 113)
        (114 113 129 130)

        (140 156 157 141)
        (140 144 160 156)
        (144 143 159 160)
        (143 141 157 159)
        (107 142 158 123)
        (142 114 130 158)
        (139 155 161 145)
        (146 145 161 162)

        (172 188 189 173)
        (172 176 192 188)
        (176 175 191 192)
        (175 173 189 191)
        (139 174 190 155)
        (174 146 162 190)
        (171 187 193 177)
        (178 177 193 194)

        (204 220 221 205)
        (204 208 224 220)
        (208 207 223 224)
        (207 205 221 223)
        (171 206 222 187)
        (206 178 194 222)
        (203 219 225 209)
        (210 209 225 226)

        (236 252 253 237)
        (236 240 256 252)
        (240 239 255 256)
        (239 237 253 255)
        (203 238 254 219)
        (238 210 226 254)
        (235 251 257 241)
        (242 241 257 258)

        (268 284 285 269)
        (268 272 288 284)
        (272 271 287 288)
        (271 269 285 287)
        (235 270 286 251)
        (270 242 258 286)
        (267 283 289 273)
        (274 273 289 290)

        (300 316 317 301)
        (300 304 320 316)
        (304 303 319 320)
        (303 301 317 319)
        (267 302 318 283)
        (302 274 290 318)
        (299 315 321 305)
        (306 305 321 322)
    );
    }
);

mergePatchPairs
(
);

// ************************************************************************* //
