/*--------------------------------*- C++ -*----------------------------------*\
| =========                 |                                                 |
| \\      /  F ield         | foam-extend: Open Source CFD                    |
|  \\    /   O peration     | Version:     3.1                                |
|   \\  /    A nd           | Web:         http://www.extend-project.de       |
|    \\/     M anipulation  |                                                 |
\*---------------------------------------------------------------------------*/
FoamFile
{
    version     2.0;
    format      ascii;
    class       dictionary;
    object      blockMeshDict;
}
// * * * * * * * * * * * * * * * * * * * * * * * * * * * * * * * * * * * * * //

convertToMeters 0.001;

vertices
(
    (-30 0 -1000)
    (570 0 -1000)
    (570 750 -1000)
    (-30 750 -1000)

    (-30 0 0)
    (570 0 0)
    (570 750 0)
    (-30 750 0)

    (-30 0 32.25)
    (570 0 32.25)
    (570 750 32.25)
    (-30 750 32.25)

    (-30 0 1032.25)
    (570 0 1032.25)
    (570 750 1032.25)
    (-30 750 1032.25)
);

blocks
(
    hex (0 1 2 3 4 5 6 7) (10 10 20) simpleGrading (1 1 1)
//    hex (8 9 10 11 12 13 14 15) (20 20 20) simpleGrading (1 1 1)
);

edges
(
);

patches
(
    patch consoleAcoustic
    (
	(4 5 6 7)
    )
    patch emission
    (
	(0 3 2 1)
        (0 4 7 3)
        (1 5 4 0)
    )
    patch symmetry1
    (
        (3 7 6 2)
        (2 6 5 1)
    )
);

mergePatchPairs
(
);

// ************************************************************************* //
