/*--------------------------------*- C++ -*----------------------------------*\
| =========                 |                                                 |
| \\      /  F ield         | foam-extend: Open Source CFD                    |
|  \\    /   O peration     | Version:     3.1                                |
|   \\  /    A nd           | Web:         http://www.extend-project.de       |
|    \\/     M anipulation  |                                                 |
\*---------------------------------------------------------------------------*/
FoamFile
{
    version     2.0;
    format      ascii;
    class       dictionary;
    location    "system";
    object      cellSetDict;
}
// * * * * * * * * * * * * * * * * * * * * * * * * * * * * * * * * * * * * * //

name            c0;

action          new;

//topoSetSources  ( boxToCell { box ( 0.45 0.6 -0.6) ( 0.69 0.9 -0.4) ; } );
//topoSetSources  ( boxToCell { box (0.51 0.675 -0.55) (0.63 0.825 -0.45) ; } );
//topoSetSources  ( boxToCell { box ( 0.54 0.7125 -0.525) ( 0.6 0.7875 -0.475) ; } );
//topoSetSources  ( boxToCell { box ( -0.03 0 -0.05) (0.6 0.75 0) ; } );
//topoSetSources  ( boxToCell { box ( -0.03 0 -0.025) (0.6 0.75 0) ; } );
//topoSetSources  ( boxToCell { box ( -0.03 0 -0.0125) (0.6 0.75 0) ; } );
//topoSetSources  ( boxToCell { box ( -0.03 0 -0.006225) (0.6 0.75 0) ; } );

topoSetSources  ( boxToCell { box ( -0.03 0 0.03225) (0.6 0.75 0.08225) ; } );
//topoSetSources  ( boxToCell { box ( -0.03 0 0.03225) (0.6 0.75 0.05725) ; } );
//topoSetSources  ( boxToCell { box ( -0.03 0 0.03225) (0.6 0.75 0.04475) ; } );
//topoSetSources  ( boxToCell { box ( -0.03 0 0.03225) (0.6 0.75 0.0385) ; } );
// ************************************************************************* //
