/*--------------------------------*- C++ -*----------------------------------*\
| =========                 |                                                 |
| \\      /  F ield         | foam-extend: Open Source CFD                    |
|  \\    /   O peration     | Version:     3.1                                |
|   \\  /    A nd           | Web:         http://www.extend-project.de       |
|    \\/     M anipulation  |                                                 |
\*---------------------------------------------------------------------------*/
FoamFile
{
    version     2.0;
    format      ascii;
    class       dictionary;
    object      fvSchemes;
}
// * * * * * * * * * * * * * * * * * * * * * * * * * * * * * * * * * * * * * //

d2dt2Schemes
{
    default     Euler;
}

gradSchemes
{
    default         Gauss linear;
    grad(Usolid)         Gauss linear;
    grad(T)         Gauss linear;
}

divSchemes
{
    default         none;
    div(sigmaU)      Gauss linear;
    div(sigma)      Gauss linear;
}

laplacianSchemes
{
    default         none;
    laplacian(DUsolid,Usolid) Gauss linear corrected;
//    laplacian(DT,T) Gauss linear corrected;
}

interpolationSchemes
{
    default         linear;
}

snGradSchemes
{
    default         corrected;
}

fluxRequired
{
    default         no;
    Usolid;
    T;
}

// ************************************************************************* //
