/*--------------------------------*- C++ -*----------------------------------*\
| =========                 |                                                 |
| \\      /  F ield         | foam-extend: Open Source CFD                    |
|  \\    /   O peration     | Version:     3.1                                |
|   \\  /    A nd           | Web:         http://www.extend-project.de       |
|    \\/     M anipulation  |                                                 |
\*---------------------------------------------------------------------------*/
FoamFile
{
    version     2.0;
    format      ascii;
    class       dictionary;
    object      fvSolution;
}
// * * * * * * * * * * * * * * * * * * * * * * * * * * * * * * * * * * * * * //

solvers
{
    Usolid GAMG
    {
        tolerance        1e-06;
        relTol           0.9;

        smoother         GaussSeidel;

        cacheAgglomeration true;

        nCellsInCoarsestLevel 20;

        agglomerator     faceAreaPair;
        mergeLevels      1;
    };

    T GAMG
    {
        tolerance        1e-06;
        relTol           0.9;

        smoother         GaussSeidel;

        cacheAgglomeration true;

        nCellsInCoarsestLevel 20;

        agglomerator     faceAreaPair;
        mergeLevels      1;
    };
}

stressedFoam
{
    compactNormalStress yes;
    nCorrectors     50;
    Usolid               1e-07;
}
// ************************************************************************* //
