/*--------------------------------*- C++ -*----------------------------------*\
| =========                 |                                                 |
| \\      /  F ield         | foam-extend: Open Source CFD                    |
|  \\    /   O peration     | Version:     3.1                                |
|   \\  /    A nd           | Web:         http://www.extend-project.de       |
|    \\/     M anipulation  |                                                 |
\*---------------------------------------------------------------------------*/
FoamFile
{
    version     2.0;
    format      ascii;
    class       polyBoundaryMesh;
    location    "1e-06/polyMesh";
    object      boundary;
}
// * * * * * * * * * * * * * * * * * * * * * * * * * * * * * * * * * * * * * //

6
(
    consoleAcoustic
    {
        type            patch;
        nFaces          800;
        startFace       17037;
    }
    emission
    {
        type            patch;
        nFaces          560;
        startFace       17837;
    }
    symmetry1
    {
        type            patch;
        nFaces          702;
        startFace       18397;
    }
    sphere_region0
    {
        type            wall;
        nFaces          82;
        startFace       19099;
    }
    reception
    {
        type            patch;
        nFaces          560;
        startFace       19181;
    }
    symmetry2
    {
        type            patch;
        nFaces          460;
        startFace       19741;
    }
)

// ************************************************************************* //
